*SPEF "ieee 1481-1999"
*DESIGN "top_wrapper"
*DATE "11:11:11 Fri 11 11, 1111"
*VENDOR "OpenRCX"
*PROGRAM "Parallel Extraction"
*VERSION "1.0"
*DESIGN_FLOW "NAME_SCOPE LOCAL" "PIN_CAP NONE"
*DIVIDER /
*DELIMITER :
*BUS_DELIMITER []
*T_UNIT 1 NS
*C_UNIT 1 PF
*R_UNIT 1 OHM
*L_UNIT 1 HENRY

*NAME_MAP
*1 io_in[0]
*2 io_in[10]
*3 io_in[11]
*4 io_in[12]
*5 io_in[13]
*6 io_in[14]
*7 io_in[15]
*8 io_in[16]
*9 io_in[17]
*10 io_in[18]
*11 io_in[19]
*12 io_in[1]
*13 io_in[20]
*14 io_in[21]
*15 io_in[22]
*16 io_in[23]
*17 io_in[24]
*18 io_in[25]
*19 io_in[26]
*20 io_in[27]
*21 io_in[28]
*22 io_in[29]
*23 io_in[2]
*24 io_in[30]
*25 io_in[31]
*26 io_in[32]
*27 io_in[33]
*28 io_in[34]
*29 io_in[35]
*30 io_in[36]
*31 io_in[37]
*32 io_in[3]
*33 io_in[4]
*34 io_in[5]
*35 io_in[6]
*36 io_in[7]
*37 io_in[8]
*38 io_in[9]
*39 net52
*40 net62
*41 net63
*42 net64
*43 net65
*44 net66
*45 net67
*46 net68
*47 net69
*48 net70
*49 net71
*50 net53
*51 net72
*52 net73
*53 net74
*54 net75
*55 net76
*56 net77
*57 net78
*58 net79
*59 net80
*60 net81
*61 net54
*62 net82
*63 net83
*64 net84
*65 net85
*66 net86
*67 net87
*68 net88
*69 net89
*70 net55
*71 net56
*72 net57
*73 net58
*74 net59
*75 net60
*76 net61
*77 io_out[0]
*78 net90
*79 net91
*80 net92
*81 net93
*82 net94
*83 net95
*84 net96
*85 net97
*86 net98
*87 net99
*88 io_out[1]
*89 net100
*90 net101
*91 net102
*92 net103
*93 net104
*94 net105
*95 net106
*96 net107
*97 net108
*98 net109
*99 io_out[2]
*100 net110
*101 net111
*102 net112
*103 net113
*104 net114
*105 net115
*106 net116
*107 net117
*108 io_out[3]
*109 io_out[4]
*110 io_out[5]
*111 io_out[6]
*112 io_out[7]
*113 io_out[8]
*114 io_out[9]
*115 la_data_in[0]
*116 la_data_in[10]
*117 la_data_in[11]
*118 la_data_in[12]
*119 la_data_in[13]
*120 la_data_in[14]
*121 la_data_in[15]
*122 la_data_in[16]
*123 la_data_in[17]
*124 la_data_in[18]
*125 la_data_in[19]
*126 la_data_in[1]
*127 la_data_in[20]
*128 la_data_in[21]
*129 la_data_in[22]
*130 la_data_in[23]
*131 la_data_in[24]
*132 la_data_in[25]
*133 la_data_in[26]
*134 la_data_in[27]
*135 la_data_in[28]
*136 la_data_in[29]
*137 la_data_in[2]
*138 la_data_in[30]
*139 la_data_in[31]
*140 la_data_in[32]
*141 la_data_in[33]
*142 la_data_in[34]
*143 la_data_in[35]
*144 la_data_in[36]
*145 la_data_in[37]
*146 la_data_in[38]
*147 la_data_in[39]
*148 la_data_in[3]
*149 la_data_in[40]
*150 la_data_in[41]
*151 la_data_in[42]
*152 la_data_in[43]
*153 la_data_in[44]
*154 la_data_in[45]
*155 la_data_in[46]
*156 la_data_in[47]
*157 la_data_in[48]
*158 la_data_in[49]
*159 la_data_in[4]
*160 la_data_in[50]
*161 la_data_in[51]
*162 la_data_in[52]
*163 la_data_in[53]
*164 la_data_in[54]
*165 la_data_in[55]
*166 la_data_in[56]
*167 la_data_in[57]
*168 la_data_in[58]
*169 la_data_in[59]
*170 la_data_in[5]
*171 la_data_in[60]
*172 la_data_in[61]
*173 la_data_in[62]
*174 la_data_in[63]
*175 la_data_in[6]
*176 la_data_in[7]
*177 la_data_in[8]
*178 la_data_in[9]
*179 net118
*180 net128
*181 net129
*182 net130
*183 net131
*184 net132
*185 net133
*186 net134
*187 net135
*188 net136
*189 net137
*190 net119
*191 net138
*192 net139
*193 net140
*194 net141
*195 net142
*196 net143
*197 net144
*198 net145
*199 net146
*200 net147
*201 net120
*202 net148
*203 net149
*204 net150
*205 net151
*206 net152
*207 net153
*208 net154
*209 net155
*210 net156
*211 net157
*212 net121
*213 net158
*214 net159
*215 net160
*216 net161
*217 net162
*218 net163
*219 net164
*220 net165
*221 net166
*222 net167
*223 net122
*224 net168
*225 net169
*226 net170
*227 net171
*228 net172
*229 net173
*230 net174
*231 net175
*232 net176
*233 net177
*234 net123
*235 net178
*236 net179
*237 net180
*238 net181
*239 net124
*240 net125
*241 net126
*242 net127
*243 la_oenb[0]
*244 la_oenb[10]
*245 la_oenb[11]
*246 la_oenb[12]
*247 la_oenb[13]
*248 la_oenb[14]
*249 la_oenb[15]
*250 la_oenb[16]
*251 la_oenb[17]
*252 la_oenb[18]
*253 la_oenb[19]
*254 la_oenb[1]
*255 la_oenb[20]
*256 la_oenb[21]
*257 la_oenb[22]
*258 la_oenb[23]
*259 la_oenb[24]
*260 la_oenb[25]
*261 la_oenb[26]
*262 la_oenb[27]
*263 la_oenb[28]
*264 la_oenb[29]
*265 la_oenb[2]
*266 la_oenb[30]
*267 la_oenb[31]
*268 la_oenb[32]
*269 la_oenb[33]
*270 la_oenb[34]
*271 la_oenb[35]
*272 la_oenb[36]
*273 la_oenb[37]
*274 la_oenb[38]
*275 la_oenb[39]
*276 la_oenb[3]
*277 la_oenb[40]
*278 la_oenb[41]
*279 la_oenb[42]
*280 la_oenb[43]
*281 la_oenb[44]
*282 la_oenb[45]
*283 la_oenb[46]
*284 la_oenb[47]
*285 la_oenb[48]
*286 la_oenb[49]
*287 la_oenb[4]
*288 la_oenb[50]
*289 la_oenb[51]
*290 la_oenb[52]
*291 la_oenb[53]
*292 la_oenb[54]
*293 la_oenb[55]
*294 la_oenb[56]
*295 la_oenb[57]
*296 la_oenb[58]
*297 la_oenb[59]
*298 la_oenb[5]
*299 la_oenb[60]
*300 la_oenb[61]
*301 la_oenb[62]
*302 la_oenb[63]
*303 la_oenb[6]
*304 la_oenb[7]
*305 la_oenb[8]
*306 la_oenb[9]
*307 user_clock2
*308 net182
*309 net183
*310 net184
*313 wb_clk_i
*314 wb_rst_i
*315 net185
*316 wbs_adr_i[0]
*317 wbs_adr_i[10]
*318 wbs_adr_i[11]
*319 wbs_adr_i[12]
*320 wbs_adr_i[13]
*321 wbs_adr_i[14]
*322 wbs_adr_i[15]
*323 wbs_adr_i[16]
*324 wbs_adr_i[17]
*325 wbs_adr_i[18]
*326 wbs_adr_i[19]
*327 wbs_adr_i[1]
*328 wbs_adr_i[20]
*329 wbs_adr_i[21]
*330 wbs_adr_i[22]
*331 wbs_adr_i[23]
*332 wbs_adr_i[24]
*333 wbs_adr_i[25]
*334 wbs_adr_i[26]
*335 wbs_adr_i[27]
*336 wbs_adr_i[28]
*337 wbs_adr_i[29]
*338 wbs_adr_i[2]
*339 wbs_adr_i[30]
*340 wbs_adr_i[31]
*341 wbs_adr_i[3]
*342 wbs_adr_i[4]
*343 wbs_adr_i[5]
*344 wbs_adr_i[6]
*345 wbs_adr_i[7]
*346 wbs_adr_i[8]
*347 wbs_adr_i[9]
*348 wbs_cyc_i
*349 wbs_dat_i[0]
*350 wbs_dat_i[10]
*351 wbs_dat_i[11]
*352 wbs_dat_i[12]
*353 wbs_dat_i[13]
*354 wbs_dat_i[14]
*355 wbs_dat_i[15]
*356 wbs_dat_i[16]
*357 wbs_dat_i[17]
*358 wbs_dat_i[18]
*359 wbs_dat_i[19]
*360 wbs_dat_i[1]
*361 wbs_dat_i[20]
*362 wbs_dat_i[21]
*363 wbs_dat_i[22]
*364 wbs_dat_i[23]
*365 wbs_dat_i[24]
*366 wbs_dat_i[25]
*367 wbs_dat_i[26]
*368 wbs_dat_i[27]
*369 wbs_dat_i[28]
*370 wbs_dat_i[29]
*371 wbs_dat_i[2]
*372 wbs_dat_i[30]
*373 wbs_dat_i[31]
*374 wbs_dat_i[3]
*375 wbs_dat_i[4]
*376 wbs_dat_i[5]
*377 wbs_dat_i[6]
*378 wbs_dat_i[7]
*379 wbs_dat_i[8]
*380 wbs_dat_i[9]
*381 net186
*382 net30
*383 net31
*384 net32
*385 net33
*386 net34
*387 net35
*388 net36
*389 net37
*390 net38
*391 net39
*392 net21
*393 net40
*394 net41
*395 net42
*396 net43
*397 net44
*398 net45
*399 net46
*400 net47
*401 net48
*402 net49
*403 net22
*404 net50
*405 net51
*406 net23
*407 net24
*408 net25
*409 net26
*410 net27
*411 net28
*412 net29
*413 wbs_sel_i[0]
*414 wbs_sel_i[1]
*415 wbs_sel_i[2]
*416 wbs_sel_i[3]
*417 wbs_stb_i
*418 wbs_we_i
*419 _000_
*420 _001_
*421 _002_
*422 _003_
*423 _004_
*424 _005_
*425 _006_
*426 _007_
*427 _008_
*428 _009_
*429 _010_
*430 _011_
*431 _012_
*432 _013_
*433 _014_
*434 _015_
*435 _016_
*436 _017_
*437 _018_
*438 _019_
*439 _020_
*440 _021_
*441 _022_
*442 _023_
*443 _024_
*444 _025_
*445 _026_
*446 _027_
*447 _028_
*448 _029_
*449 _030_
*450 _031_
*451 _032_
*452 _033_
*453 _034_
*454 _035_
*455 _036_
*456 _037_
*457 _038_
*458 _039_
*459 _040_
*460 _041_
*461 _042_
*462 _043_
*463 _044_
*464 _045_
*465 _046_
*466 _047_
*467 _048_
*468 _049_
*469 _050_
*470 _051_
*471 _052_
*472 _053_
*473 _054_
*474 _055_
*475 _056_
*476 _057_
*477 _058_
*478 _059_
*479 _060_
*480 _061_
*481 _062_
*482 _063_
*483 _064_
*484 _065_
*485 _066_
*486 _067_
*487 _068_
*488 _069_
*489 _070_
*490 _071_
*491 _072_
*492 _073_
*493 _074_
*494 _075_
*495 _076_
*496 _077_
*497 _078_
*498 _079_
*499 _080_
*500 _081_
*501 _082_
*502 _083_
*503 _084_
*504 _085_
*505 _086_
*506 _087_
*507 _088_
*508 _089_
*509 _090_
*510 _091_
*511 _092_
*512 _093_
*513 _094_
*514 _095_
*515 _096_
*516 _097_
*517 _098_
*518 _099_
*519 _100_
*520 _101_
*521 _102_
*522 _103_
*523 _104_
*524 _105_
*525 _106_
*526 _107_
*527 _108_
*528 _109_
*529 clknet_0_wb_clk_i
*530 clknet_1_0__leaf_wb_clk_i
*531 clknet_1_1__leaf_wb_clk_i
*532 net1
*533 net10
*534 net11
*535 net12
*536 net13
*537 net14
*538 net15
*539 net16
*540 net17
*541 net18
*542 net19
*543 net2
*544 net20
*545 net3
*546 net4
*547 net5
*548 net6
*549 net7
*550 net8
*551 net9
*552 top\.A1
*553 top\.E1
*554 top\.H1
*555 top\.H2
*556 top\.I1
*557 top\.I2
*558 top\.J1
*559 top\.J2
*560 top\.J3
*561 top\.M00
*562 top\.in1C\[0\]
*563 top\.in1C\[1\]
*564 top\.in1C\[2\]
*565 top\.in1C\[3\]
*566 top\.in1C\[4\]
*567 top\.in2C\[0\]
*568 top\.in2C\[1\]
*569 top\.in2C\[2\]
*570 top\.in2C\[3\]
*571 top\.in2C\[4\]
*572 ANTENNA__111__A1
*573 ANTENNA__112__I
*574 ANTENNA__118__A1
*575 ANTENNA__118__B1
*576 ANTENNA__118__B2
*577 ANTENNA__120__I
*578 ANTENNA__121__A2
*579 ANTENNA__124__A1
*580 ANTENNA__125__A1
*581 ANTENNA__126__B2
*582 ANTENNA__131__I
*583 ANTENNA__132__A1
*584 ANTENNA__134__A2
*585 ANTENNA__139__A1
*586 ANTENNA__139__A2
*587 ANTENNA__142__A1
*588 ANTENNA__144__I
*589 ANTENNA__145__A1
*590 ANTENNA__146__A1
*591 ANTENNA__147__I
*592 ANTENNA__151__A1
*593 ANTENNA__152__A1
*594 ANTENNA__152__A2
*595 ANTENNA__153__A2
*596 ANTENNA__154__A2
*597 ANTENNA__154__A3
*598 ANTENNA__154__A4
*599 ANTENNA__155__A1
*600 ANTENNA__155__A2
*601 ANTENNA__159__A1
*602 ANTENNA__159__B1
*603 ANTENNA__161__I
*604 ANTENNA__162__A1
*605 ANTENNA__162__C
*606 ANTENNA__163__A1
*607 ANTENNA__163__A2
*608 ANTENNA__164__A2
*609 ANTENNA__165__A2
*610 ANTENNA__167__I
*611 ANTENNA__169__A1
*612 ANTENNA__170__A1
*613 ANTENNA__171__A1
*614 ANTENNA__172__I
*615 ANTENNA__174__A1
*616 ANTENNA__174__A2
*617 ANTENNA__175__A1
*618 ANTENNA__175__A2
*619 ANTENNA__177__A2
*620 ANTENNA__178__A1
*621 ANTENNA__178__A2
*622 ANTENNA__180__A2
*623 ANTENNA__181__A2
*624 ANTENNA__183__A1
*625 ANTENNA__187__I
*626 ANTENNA__191__A2
*627 ANTENNA__191__B2
*628 ANTENNA__193__A2
*629 ANTENNA__194__I
*630 ANTENNA__195__A1
*631 ANTENNA__196__A1
*632 ANTENNA__196__A2
*633 ANTENNA__197__A2
*634 ANTENNA__201__A1
*635 ANTENNA__204__I
*636 ANTENNA__207__A1
*637 ANTENNA__228__A1
*638 ANTENNA__228__A2
*639 ANTENNA__230__CLK
*640 ANTENNA__230__D
*641 ANTENNA__231__CLK
*642 ANTENNA__231__D
*643 ANTENNA__232__CLK
*644 ANTENNA__232__D
*645 ANTENNA__233__CLK
*646 ANTENNA__233__D
*647 ANTENNA__234__CLK
*648 ANTENNA__234__D
*649 ANTENNA__235__CLK
*650 ANTENNA__235__D
*651 ANTENNA__236__CLK
*652 ANTENNA__236__D
*653 ANTENNA__237__CLK
*654 ANTENNA__237__D
*655 ANTENNA__238__CLK
*656 ANTENNA__238__D
*657 ANTENNA__239__CLK
*658 ANTENNA__239__D
*659 ANTENNA__240__CLK
*660 ANTENNA__241__CLK
*661 ANTENNA__242__CLK
*662 ANTENNA__243__CLK
*663 ANTENNA__244__CLK
*664 ANTENNA__245__CLK
*665 ANTENNA__246__CLK
*666 ANTENNA__247__CLK
*667 ANTENNA__248__CLK
*668 ANTENNA__249__CLK
*669 ANTENNA__249__D
*670 ANTENNA_clkbuf_0_wb_clk_i_I
*671 ANTENNA_input10_I
*672 ANTENNA_input1_I
*673 ANTENNA_input2_I
*674 ANTENNA_input3_I
*675 ANTENNA_input4_I
*676 ANTENNA_input5_I
*677 ANTENNA_input6_I
*678 ANTENNA_input7_I
*679 ANTENNA_input8_I
*680 ANTENNA_input9_I
*681 ANTENNA_output13_I
*682 ANTENNA_output14_I
*683 ANTENNA_output15_I
*684 ANTENNA_output16_I
*685 ANTENNA_output17_I
*686 ANTENNA_output18_I
*687 ANTENNA_output19_I
*688 ANTENNA_output20_I
*689 FILLER_0_1006
*690 FILLER_0_1008
*691 FILLER_0_1013
*692 FILLER_0_1017
*693 FILLER_0_1021
*694 FILLER_0_1023
*695 FILLER_0_1028
*696 FILLER_0_103
*697 FILLER_0_1036
*698 FILLER_0_1038
*699 FILLER_0_1043
*700 FILLER_0_1047
*701 FILLER_0_1049
*702 FILLER_0_1052
*703 FILLER_0_1058
*704 FILLER_0_1066
*705 FILLER_0_1068
*706 FILLER_0_107
*707 FILLER_0_1073
*708 FILLER_0_1081
*709 FILLER_0_1087
*710 FILLER_0_1092
*711 FILLER_0_1096
*712 FILLER_0_1098
*713 FILLER_0_1103
*714 FILLER_0_1111
*715 FILLER_0_1113
*716 FILLER_0_1118
*717 FILLER_0_1122
*718 FILLER_0_1126
*719 FILLER_0_1128
*720 FILLER_0_1133
*721 FILLER_0_1141
*722 FILLER_0_1143
*723 FILLER_0_1148
*724 FILLER_0_115
*725 FILLER_0_1152
*726 FILLER_0_1154
*727 FILLER_0_1157
*728 FILLER_0_1163
*729 FILLER_0_1171
*730 FILLER_0_1173
*731 FILLER_0_1178
*732 FILLER_0_1186
*733 FILLER_0_1192
*734 FILLER_0_1197
*735 FILLER_0_1201
*736 FILLER_0_1203
*737 FILLER_0_1208
*738 FILLER_0_1216
*739 FILLER_0_1218
*740 FILLER_0_1223
*741 FILLER_0_1227
*742 FILLER_0_123
*743 FILLER_0_1231
*744 FILLER_0_1233
*745 FILLER_0_1238
*746 FILLER_0_1246
*747 FILLER_0_1248
*748 FILLER_0_1253
*749 FILLER_0_1257
*750 FILLER_0_1259
*751 FILLER_0_1262
*752 FILLER_0_1268
*753 FILLER_0_1276
*754 FILLER_0_1278
*755 FILLER_0_1283
*756 FILLER_0_1291
*757 FILLER_0_1297
*758 FILLER_0_1302
*759 FILLER_0_1306
*760 FILLER_0_1308
*761 FILLER_0_1313
*762 FILLER_0_1321
*763 FILLER_0_1323
*764 FILLER_0_1328
*765 FILLER_0_1332
*766 FILLER_0_1336
*767 FILLER_0_1338
*768 FILLER_0_1343
*769 FILLER_0_1351
*770 FILLER_0_1353
*771 FILLER_0_1358
*772 FILLER_0_1362
*773 FILLER_0_1364
*774 FILLER_0_1367
*775 FILLER_0_1373
*776 FILLER_0_1381
*777 FILLER_0_1383
*778 FILLER_0_1388
*779 FILLER_0_139
*780 FILLER_0_1396
*781 FILLER_0_1402
*782 FILLER_0_1407
*783 FILLER_0_1411
*784 FILLER_0_1413
*785 FILLER_0_1418
*786 FILLER_0_142
*787 FILLER_0_1426
*788 FILLER_0_1428
*789 FILLER_0_1433
*790 FILLER_0_1437
*791 FILLER_0_1441
*792 FILLER_0_1443
*793 FILLER_0_1448
*794 FILLER_0_1456
*795 FILLER_0_1458
*796 FILLER_0_1463
*797 FILLER_0_1467
*798 FILLER_0_1469
*799 FILLER_0_147
*800 FILLER_0_1472
*801 FILLER_0_1478
*802 FILLER_0_1486
*803 FILLER_0_1488
*804 FILLER_0_1493
*805 FILLER_0_1501
*806 FILLER_0_1507
*807 FILLER_0_1512
*808 FILLER_0_1516
*809 FILLER_0_1518
*810 FILLER_0_1523
*811 FILLER_0_1531
*812 FILLER_0_1533
*813 FILLER_0_1538
*814 FILLER_0_1542
*815 FILLER_0_1547
*816 FILLER_0_155
*817 FILLER_0_1553
*818 FILLER_0_1561
*819 FILLER_0_1565
*820 FILLER_0_1567
*821 FILLER_0_1574
*822 FILLER_0_1577
*823 FILLER_0_1580
*824 FILLER_0_163
*825 FILLER_0_171
*826 FILLER_0_177
*827 FILLER_0_182
*828 FILLER_0_186
*829 FILLER_0_188
*830 FILLER_0_193
*831 FILLER_0_2
*832 FILLER_0_201
*833 FILLER_0_203
*834 FILLER_0_208
*835 FILLER_0_212
*836 FILLER_0_216
*837 FILLER_0_218
*838 FILLER_0_223
*839 FILLER_0_23
*840 FILLER_0_231
*841 FILLER_0_233
*842 FILLER_0_238
*843 FILLER_0_242
*844 FILLER_0_244
*845 FILLER_0_247
*846 FILLER_0_253
*847 FILLER_0_261
*848 FILLER_0_263
*849 FILLER_0_268
*850 FILLER_0_276
*851 FILLER_0_282
*852 FILLER_0_287
*853 FILLER_0_291
*854 FILLER_0_293
*855 FILLER_0_298
*856 FILLER_0_306
*857 FILLER_0_308
*858 FILLER_0_31
*859 FILLER_0_313
*860 FILLER_0_317
*861 FILLER_0_321
*862 FILLER_0_323
*863 FILLER_0_328
*864 FILLER_0_336
*865 FILLER_0_338
*866 FILLER_0_343
*867 FILLER_0_347
*868 FILLER_0_349
*869 FILLER_0_352
*870 FILLER_0_358
*871 FILLER_0_366
*872 FILLER_0_368
*873 FILLER_0_37
*874 FILLER_0_373
*875 FILLER_0_381
*876 FILLER_0_387
*877 FILLER_0_392
*878 FILLER_0_396
*879 FILLER_0_398
*880 FILLER_0_403
*881 FILLER_0_411
*882 FILLER_0_413
*883 FILLER_0_418
*884 FILLER_0_422
*885 FILLER_0_426
*886 FILLER_0_428
*887 FILLER_0_433
*888 FILLER_0_441
*889 FILLER_0_443
*890 FILLER_0_448
*891 FILLER_0_45
*892 FILLER_0_452
*893 FILLER_0_454
*894 FILLER_0_457
*895 FILLER_0_463
*896 FILLER_0_471
*897 FILLER_0_473
*898 FILLER_0_478
*899 FILLER_0_486
*900 FILLER_0_492
*901 FILLER_0_497
*902 FILLER_0_501
*903 FILLER_0_503
*904 FILLER_0_508
*905 FILLER_0_516
*906 FILLER_0_518
*907 FILLER_0_523
*908 FILLER_0_527
*909 FILLER_0_53
*910 FILLER_0_531
*911 FILLER_0_533
*912 FILLER_0_538
*913 FILLER_0_546
*914 FILLER_0_548
*915 FILLER_0_553
*916 FILLER_0_557
*917 FILLER_0_559
*918 FILLER_0_562
*919 FILLER_0_568
*920 FILLER_0_572
*921 FILLER_0_578
*922 FILLER_0_586
*923 FILLER_0_588
*924 FILLER_0_593
*925 FILLER_0_597
*926 FILLER_0_601
*927 FILLER_0_603
*928 FILLER_0_608
*929 FILLER_0_616
*930 FILLER_0_618
*931 FILLER_0_623
*932 FILLER_0_627
*933 FILLER_0_629
*934 FILLER_0_632
*935 FILLER_0_638
*936 FILLER_0_646
*937 FILLER_0_648
*938 FILLER_0_653
*939 FILLER_0_661
*940 FILLER_0_667
*941 FILLER_0_672
*942 FILLER_0_676
*943 FILLER_0_678
*944 FILLER_0_683
*945 FILLER_0_69
*946 FILLER_0_691
*947 FILLER_0_693
*948 FILLER_0_698
*949 FILLER_0_7
*950 FILLER_0_702
*951 FILLER_0_706
*952 FILLER_0_708
*953 FILLER_0_713
*954 FILLER_0_72
*955 FILLER_0_721
*956 FILLER_0_723
*957 FILLER_0_728
*958 FILLER_0_732
*959 FILLER_0_734
*960 FILLER_0_737
*961 FILLER_0_743
*962 FILLER_0_751
*963 FILLER_0_753
*964 FILLER_0_758
*965 FILLER_0_76
*966 FILLER_0_766
*967 FILLER_0_772
*968 FILLER_0_777
*969 FILLER_0_78
*970 FILLER_0_781
*971 FILLER_0_783
*972 FILLER_0_788
*973 FILLER_0_796
*974 FILLER_0_798
*975 FILLER_0_803
*976 FILLER_0_807
*977 FILLER_0_811
*978 FILLER_0_813
*979 FILLER_0_818
*980 FILLER_0_826
*981 FILLER_0_828
*982 FILLER_0_83
*983 FILLER_0_833
*984 FILLER_0_837
*985 FILLER_0_839
*986 FILLER_0_842
*987 FILLER_0_848
*988 FILLER_0_856
*989 FILLER_0_858
*990 FILLER_0_863
*991 FILLER_0_871
*992 FILLER_0_877
*993 FILLER_0_882
*994 FILLER_0_886
*995 FILLER_0_888
*996 FILLER_0_893
*997 FILLER_0_901
*998 FILLER_0_903
*999 FILLER_0_908
*1000 FILLER_0_912
*1001 FILLER_0_916
*1002 FILLER_0_918
*1003 FILLER_0_923
*1004 FILLER_0_931
*1005 FILLER_0_933
*1006 FILLER_0_938
*1007 FILLER_0_942
*1008 FILLER_0_944
*1009 FILLER_0_947
*1010 FILLER_0_953
*1011 FILLER_0_961
*1012 FILLER_0_963
*1013 FILLER_0_968
*1014 FILLER_0_976
*1015 FILLER_0_982
*1016 FILLER_0_987
*1017 FILLER_0_991
*1018 FILLER_0_993
*1019 FILLER_0_998
*1020 FILLER_100_101
*1021 FILLER_100_1024
*1022 FILLER_100_1028
*1023 FILLER_100_1031
*1024 FILLER_100_105
*1025 FILLER_100_108
*1026 FILLER_100_1095
*1027 FILLER_100_1099
*1028 FILLER_100_1102
*1029 FILLER_100_1166
*1030 FILLER_100_1170
*1031 FILLER_100_1173
*1032 FILLER_100_1237
*1033 FILLER_100_1241
*1034 FILLER_100_1244
*1035 FILLER_100_1308
*1036 FILLER_100_1312
*1037 FILLER_100_1315
*1038 FILLER_100_1379
*1039 FILLER_100_1383
*1040 FILLER_100_1386
*1041 FILLER_100_1450
*1042 FILLER_100_1454
*1043 FILLER_100_1457
*1044 FILLER_100_1521
*1045 FILLER_100_1525
*1046 FILLER_100_1528
*1047 FILLER_100_1560
*1048 FILLER_100_1576
*1049 FILLER_100_1580
*1050 FILLER_100_172
*1051 FILLER_100_176
*1052 FILLER_100_179
*1053 FILLER_100_2
*1054 FILLER_100_243
*1055 FILLER_100_247
*1056 FILLER_100_250
*1057 FILLER_100_314
*1058 FILLER_100_318
*1059 FILLER_100_321
*1060 FILLER_100_34
*1061 FILLER_100_37
*1062 FILLER_100_385
*1063 FILLER_100_389
*1064 FILLER_100_392
*1065 FILLER_100_456
*1066 FILLER_100_460
*1067 FILLER_100_463
*1068 FILLER_100_527
*1069 FILLER_100_531
*1070 FILLER_100_534
*1071 FILLER_100_598
*1072 FILLER_100_602
*1073 FILLER_100_605
*1074 FILLER_100_669
*1075 FILLER_100_673
*1076 FILLER_100_676
*1077 FILLER_100_740
*1078 FILLER_100_744
*1079 FILLER_100_747
*1080 FILLER_100_811
*1081 FILLER_100_815
*1082 FILLER_100_818
*1083 FILLER_100_882
*1084 FILLER_100_886
*1085 FILLER_100_889
*1086 FILLER_100_953
*1087 FILLER_100_957
*1088 FILLER_100_960
*1089 FILLER_101_1060
*1090 FILLER_101_1064
*1091 FILLER_101_1067
*1092 FILLER_101_1131
*1093 FILLER_101_1135
*1094 FILLER_101_1138
*1095 FILLER_101_1202
*1096 FILLER_101_1206
*1097 FILLER_101_1209
*1098 FILLER_101_1273
*1099 FILLER_101_1277
*1100 FILLER_101_1280
*1101 FILLER_101_1344
*1102 FILLER_101_1348
*1103 FILLER_101_1351
*1104 FILLER_101_137
*1105 FILLER_101_141
*1106 FILLER_101_1415
*1107 FILLER_101_1419
*1108 FILLER_101_1422
*1109 FILLER_101_144
*1110 FILLER_101_1486
*1111 FILLER_101_1490
*1112 FILLER_101_1493
*1113 FILLER_101_1557
*1114 FILLER_101_1561
*1115 FILLER_101_1564
*1116 FILLER_101_1580
*1117 FILLER_101_2
*1118 FILLER_101_208
*1119 FILLER_101_212
*1120 FILLER_101_215
*1121 FILLER_101_279
*1122 FILLER_101_283
*1123 FILLER_101_286
*1124 FILLER_101_350
*1125 FILLER_101_354
*1126 FILLER_101_357
*1127 FILLER_101_421
*1128 FILLER_101_425
*1129 FILLER_101_428
*1130 FILLER_101_492
*1131 FILLER_101_496
*1132 FILLER_101_499
*1133 FILLER_101_563
*1134 FILLER_101_567
*1135 FILLER_101_570
*1136 FILLER_101_634
*1137 FILLER_101_638
*1138 FILLER_101_641
*1139 FILLER_101_66
*1140 FILLER_101_70
*1141 FILLER_101_705
*1142 FILLER_101_709
*1143 FILLER_101_712
*1144 FILLER_101_73
*1145 FILLER_101_776
*1146 FILLER_101_780
*1147 FILLER_101_783
*1148 FILLER_101_847
*1149 FILLER_101_851
*1150 FILLER_101_854
*1151 FILLER_101_918
*1152 FILLER_101_922
*1153 FILLER_101_925
*1154 FILLER_101_989
*1155 FILLER_101_993
*1156 FILLER_101_996
*1157 FILLER_102_101
*1158 FILLER_102_1024
*1159 FILLER_102_1028
*1160 FILLER_102_1031
*1161 FILLER_102_105
*1162 FILLER_102_108
*1163 FILLER_102_1095
*1164 FILLER_102_1099
*1165 FILLER_102_1102
*1166 FILLER_102_1166
*1167 FILLER_102_1170
*1168 FILLER_102_1173
*1169 FILLER_102_1237
*1170 FILLER_102_1241
*1171 FILLER_102_1244
*1172 FILLER_102_1308
*1173 FILLER_102_1312
*1174 FILLER_102_1315
*1175 FILLER_102_1379
*1176 FILLER_102_1383
*1177 FILLER_102_1386
*1178 FILLER_102_1450
*1179 FILLER_102_1454
*1180 FILLER_102_1457
*1181 FILLER_102_1521
*1182 FILLER_102_1525
*1183 FILLER_102_1528
*1184 FILLER_102_1560
*1185 FILLER_102_1580
*1186 FILLER_102_172
*1187 FILLER_102_176
*1188 FILLER_102_179
*1189 FILLER_102_2
*1190 FILLER_102_243
*1191 FILLER_102_247
*1192 FILLER_102_250
*1193 FILLER_102_314
*1194 FILLER_102_318
*1195 FILLER_102_321
*1196 FILLER_102_34
*1197 FILLER_102_37
*1198 FILLER_102_385
*1199 FILLER_102_389
*1200 FILLER_102_392
*1201 FILLER_102_456
*1202 FILLER_102_460
*1203 FILLER_102_463
*1204 FILLER_102_527
*1205 FILLER_102_531
*1206 FILLER_102_534
*1207 FILLER_102_598
*1208 FILLER_102_602
*1209 FILLER_102_605
*1210 FILLER_102_669
*1211 FILLER_102_673
*1212 FILLER_102_676
*1213 FILLER_102_740
*1214 FILLER_102_744
*1215 FILLER_102_747
*1216 FILLER_102_811
*1217 FILLER_102_815
*1218 FILLER_102_818
*1219 FILLER_102_882
*1220 FILLER_102_886
*1221 FILLER_102_889
*1222 FILLER_102_953
*1223 FILLER_102_957
*1224 FILLER_102_960
*1225 FILLER_103_1060
*1226 FILLER_103_1064
*1227 FILLER_103_1067
*1228 FILLER_103_1131
*1229 FILLER_103_1135
*1230 FILLER_103_1138
*1231 FILLER_103_1202
*1232 FILLER_103_1206
*1233 FILLER_103_1209
*1234 FILLER_103_1273
*1235 FILLER_103_1277
*1236 FILLER_103_1280
*1237 FILLER_103_1344
*1238 FILLER_103_1348
*1239 FILLER_103_1351
*1240 FILLER_103_137
*1241 FILLER_103_141
*1242 FILLER_103_1415
*1243 FILLER_103_1419
*1244 FILLER_103_1422
*1245 FILLER_103_144
*1246 FILLER_103_1486
*1247 FILLER_103_1490
*1248 FILLER_103_1493
*1249 FILLER_103_1557
*1250 FILLER_103_1561
*1251 FILLER_103_1564
*1252 FILLER_103_1580
*1253 FILLER_103_2
*1254 FILLER_103_208
*1255 FILLER_103_212
*1256 FILLER_103_215
*1257 FILLER_103_279
*1258 FILLER_103_283
*1259 FILLER_103_286
*1260 FILLER_103_350
*1261 FILLER_103_354
*1262 FILLER_103_357
*1263 FILLER_103_421
*1264 FILLER_103_425
*1265 FILLER_103_428
*1266 FILLER_103_492
*1267 FILLER_103_496
*1268 FILLER_103_499
*1269 FILLER_103_563
*1270 FILLER_103_567
*1271 FILLER_103_570
*1272 FILLER_103_634
*1273 FILLER_103_638
*1274 FILLER_103_641
*1275 FILLER_103_66
*1276 FILLER_103_70
*1277 FILLER_103_705
*1278 FILLER_103_709
*1279 FILLER_103_712
*1280 FILLER_103_73
*1281 FILLER_103_776
*1282 FILLER_103_780
*1283 FILLER_103_783
*1284 FILLER_103_847
*1285 FILLER_103_851
*1286 FILLER_103_854
*1287 FILLER_103_918
*1288 FILLER_103_922
*1289 FILLER_103_925
*1290 FILLER_103_989
*1291 FILLER_103_993
*1292 FILLER_103_996
*1293 FILLER_104_101
*1294 FILLER_104_1024
*1295 FILLER_104_1028
*1296 FILLER_104_1031
*1297 FILLER_104_105
*1298 FILLER_104_108
*1299 FILLER_104_1095
*1300 FILLER_104_1099
*1301 FILLER_104_1102
*1302 FILLER_104_1166
*1303 FILLER_104_1170
*1304 FILLER_104_1173
*1305 FILLER_104_1237
*1306 FILLER_104_1241
*1307 FILLER_104_1244
*1308 FILLER_104_1308
*1309 FILLER_104_1312
*1310 FILLER_104_1315
*1311 FILLER_104_1379
*1312 FILLER_104_1383
*1313 FILLER_104_1386
*1314 FILLER_104_1450
*1315 FILLER_104_1454
*1316 FILLER_104_1457
*1317 FILLER_104_1521
*1318 FILLER_104_1525
*1319 FILLER_104_1528
*1320 FILLER_104_1560
*1321 FILLER_104_1576
*1322 FILLER_104_1580
*1323 FILLER_104_172
*1324 FILLER_104_176
*1325 FILLER_104_179
*1326 FILLER_104_2
*1327 FILLER_104_243
*1328 FILLER_104_247
*1329 FILLER_104_250
*1330 FILLER_104_314
*1331 FILLER_104_318
*1332 FILLER_104_321
*1333 FILLER_104_34
*1334 FILLER_104_37
*1335 FILLER_104_385
*1336 FILLER_104_389
*1337 FILLER_104_392
*1338 FILLER_104_456
*1339 FILLER_104_460
*1340 FILLER_104_463
*1341 FILLER_104_527
*1342 FILLER_104_531
*1343 FILLER_104_534
*1344 FILLER_104_598
*1345 FILLER_104_602
*1346 FILLER_104_605
*1347 FILLER_104_669
*1348 FILLER_104_673
*1349 FILLER_104_676
*1350 FILLER_104_740
*1351 FILLER_104_744
*1352 FILLER_104_747
*1353 FILLER_104_811
*1354 FILLER_104_815
*1355 FILLER_104_818
*1356 FILLER_104_882
*1357 FILLER_104_886
*1358 FILLER_104_889
*1359 FILLER_104_953
*1360 FILLER_104_957
*1361 FILLER_104_960
*1362 FILLER_105_1060
*1363 FILLER_105_1064
*1364 FILLER_105_1067
*1365 FILLER_105_1131
*1366 FILLER_105_1135
*1367 FILLER_105_1138
*1368 FILLER_105_1202
*1369 FILLER_105_1206
*1370 FILLER_105_1209
*1371 FILLER_105_1273
*1372 FILLER_105_1277
*1373 FILLER_105_1280
*1374 FILLER_105_1344
*1375 FILLER_105_1348
*1376 FILLER_105_1351
*1377 FILLER_105_137
*1378 FILLER_105_141
*1379 FILLER_105_1415
*1380 FILLER_105_1419
*1381 FILLER_105_1422
*1382 FILLER_105_144
*1383 FILLER_105_1486
*1384 FILLER_105_1490
*1385 FILLER_105_1493
*1386 FILLER_105_1557
*1387 FILLER_105_1561
*1388 FILLER_105_1564
*1389 FILLER_105_1572
*1390 FILLER_105_1580
*1391 FILLER_105_2
*1392 FILLER_105_208
*1393 FILLER_105_212
*1394 FILLER_105_215
*1395 FILLER_105_279
*1396 FILLER_105_283
*1397 FILLER_105_286
*1398 FILLER_105_350
*1399 FILLER_105_354
*1400 FILLER_105_357
*1401 FILLER_105_421
*1402 FILLER_105_425
*1403 FILLER_105_428
*1404 FILLER_105_492
*1405 FILLER_105_496
*1406 FILLER_105_499
*1407 FILLER_105_563
*1408 FILLER_105_567
*1409 FILLER_105_570
*1410 FILLER_105_634
*1411 FILLER_105_638
*1412 FILLER_105_641
*1413 FILLER_105_66
*1414 FILLER_105_70
*1415 FILLER_105_705
*1416 FILLER_105_709
*1417 FILLER_105_712
*1418 FILLER_105_73
*1419 FILLER_105_776
*1420 FILLER_105_780
*1421 FILLER_105_783
*1422 FILLER_105_847
*1423 FILLER_105_851
*1424 FILLER_105_854
*1425 FILLER_105_918
*1426 FILLER_105_922
*1427 FILLER_105_925
*1428 FILLER_105_989
*1429 FILLER_105_993
*1430 FILLER_105_996
*1431 FILLER_106_101
*1432 FILLER_106_1024
*1433 FILLER_106_1028
*1434 FILLER_106_1031
*1435 FILLER_106_105
*1436 FILLER_106_108
*1437 FILLER_106_1095
*1438 FILLER_106_1099
*1439 FILLER_106_1102
*1440 FILLER_106_1166
*1441 FILLER_106_1170
*1442 FILLER_106_1173
*1443 FILLER_106_1237
*1444 FILLER_106_1241
*1445 FILLER_106_1244
*1446 FILLER_106_1308
*1447 FILLER_106_1312
*1448 FILLER_106_1315
*1449 FILLER_106_1379
*1450 FILLER_106_1383
*1451 FILLER_106_1386
*1452 FILLER_106_1450
*1453 FILLER_106_1454
*1454 FILLER_106_1457
*1455 FILLER_106_1521
*1456 FILLER_106_1525
*1457 FILLER_106_1528
*1458 FILLER_106_1560
*1459 FILLER_106_1576
*1460 FILLER_106_1580
*1461 FILLER_106_172
*1462 FILLER_106_176
*1463 FILLER_106_179
*1464 FILLER_106_2
*1465 FILLER_106_23
*1466 FILLER_106_243
*1467 FILLER_106_247
*1468 FILLER_106_250
*1469 FILLER_106_31
*1470 FILLER_106_314
*1471 FILLER_106_318
*1472 FILLER_106_321
*1473 FILLER_106_37
*1474 FILLER_106_385
*1475 FILLER_106_389
*1476 FILLER_106_392
*1477 FILLER_106_456
*1478 FILLER_106_460
*1479 FILLER_106_463
*1480 FILLER_106_527
*1481 FILLER_106_531
*1482 FILLER_106_534
*1483 FILLER_106_598
*1484 FILLER_106_602
*1485 FILLER_106_605
*1486 FILLER_106_669
*1487 FILLER_106_673
*1488 FILLER_106_676
*1489 FILLER_106_7
*1490 FILLER_106_740
*1491 FILLER_106_744
*1492 FILLER_106_747
*1493 FILLER_106_811
*1494 FILLER_106_815
*1495 FILLER_106_818
*1496 FILLER_106_882
*1497 FILLER_106_886
*1498 FILLER_106_889
*1499 FILLER_106_953
*1500 FILLER_106_957
*1501 FILLER_106_960
*1502 FILLER_107_1060
*1503 FILLER_107_1064
*1504 FILLER_107_1067
*1505 FILLER_107_1131
*1506 FILLER_107_1135
*1507 FILLER_107_1138
*1508 FILLER_107_1202
*1509 FILLER_107_1206
*1510 FILLER_107_1209
*1511 FILLER_107_1273
*1512 FILLER_107_1277
*1513 FILLER_107_1280
*1514 FILLER_107_1344
*1515 FILLER_107_1348
*1516 FILLER_107_1351
*1517 FILLER_107_137
*1518 FILLER_107_141
*1519 FILLER_107_1415
*1520 FILLER_107_1419
*1521 FILLER_107_1422
*1522 FILLER_107_144
*1523 FILLER_107_1486
*1524 FILLER_107_1490
*1525 FILLER_107_1493
*1526 FILLER_107_1557
*1527 FILLER_107_1561
*1528 FILLER_107_1564
*1529 FILLER_107_1580
*1530 FILLER_107_2
*1531 FILLER_107_208
*1532 FILLER_107_212
*1533 FILLER_107_215
*1534 FILLER_107_279
*1535 FILLER_107_283
*1536 FILLER_107_286
*1537 FILLER_107_350
*1538 FILLER_107_354
*1539 FILLER_107_357
*1540 FILLER_107_421
*1541 FILLER_107_425
*1542 FILLER_107_428
*1543 FILLER_107_492
*1544 FILLER_107_496
*1545 FILLER_107_499
*1546 FILLER_107_563
*1547 FILLER_107_567
*1548 FILLER_107_570
*1549 FILLER_107_634
*1550 FILLER_107_638
*1551 FILLER_107_641
*1552 FILLER_107_66
*1553 FILLER_107_70
*1554 FILLER_107_705
*1555 FILLER_107_709
*1556 FILLER_107_712
*1557 FILLER_107_73
*1558 FILLER_107_776
*1559 FILLER_107_780
*1560 FILLER_107_783
*1561 FILLER_107_847
*1562 FILLER_107_851
*1563 FILLER_107_854
*1564 FILLER_107_918
*1565 FILLER_107_922
*1566 FILLER_107_925
*1567 FILLER_107_989
*1568 FILLER_107_993
*1569 FILLER_107_996
*1570 FILLER_108_101
*1571 FILLER_108_1024
*1572 FILLER_108_1028
*1573 FILLER_108_1031
*1574 FILLER_108_105
*1575 FILLER_108_108
*1576 FILLER_108_1095
*1577 FILLER_108_1099
*1578 FILLER_108_1102
*1579 FILLER_108_1166
*1580 FILLER_108_1170
*1581 FILLER_108_1173
*1582 FILLER_108_1237
*1583 FILLER_108_1241
*1584 FILLER_108_1244
*1585 FILLER_108_1308
*1586 FILLER_108_1312
*1587 FILLER_108_1315
*1588 FILLER_108_1379
*1589 FILLER_108_1383
*1590 FILLER_108_1386
*1591 FILLER_108_1450
*1592 FILLER_108_1454
*1593 FILLER_108_1457
*1594 FILLER_108_1521
*1595 FILLER_108_1525
*1596 FILLER_108_1528
*1597 FILLER_108_1560
*1598 FILLER_108_1576
*1599 FILLER_108_1580
*1600 FILLER_108_172
*1601 FILLER_108_176
*1602 FILLER_108_179
*1603 FILLER_108_2
*1604 FILLER_108_243
*1605 FILLER_108_247
*1606 FILLER_108_250
*1607 FILLER_108_314
*1608 FILLER_108_318
*1609 FILLER_108_321
*1610 FILLER_108_34
*1611 FILLER_108_37
*1612 FILLER_108_385
*1613 FILLER_108_389
*1614 FILLER_108_392
*1615 FILLER_108_456
*1616 FILLER_108_460
*1617 FILLER_108_463
*1618 FILLER_108_527
*1619 FILLER_108_531
*1620 FILLER_108_534
*1621 FILLER_108_598
*1622 FILLER_108_602
*1623 FILLER_108_605
*1624 FILLER_108_669
*1625 FILLER_108_673
*1626 FILLER_108_676