*SPEF "ieee 1481-1999"
*DESIGN "user_project_wrapper"
*DATE "11:11:11 Fri 11 11, 1111"
*VENDOR "OpenRCX"
*PROGRAM "Parallel Extraction"
*VERSION "1.0"
*DESIGN_FLOW "NAME_SCOPE LOCAL" "PIN_CAP NONE"
*DIVIDER /
*DELIMITER :
*BUS_DELIMITER []
*T_UNIT 1 NS
*C_UNIT 1 PF
*R_UNIT 1 OHM
*L_UNIT 1 HENRY

*NAME_MAP
*1 io_in[0]
*2 io_in[10]
*3 io_in[11]
*4 io_in[12]
*5 io_in[13]
*6 io_in[14]
*7 io_in[15]
*8 io_in[16]
*9 io_in[17]
*10 io_in[18]
*11 io_in[19]
*12 io_in[1]
*13 io_in[20]
*14 io_in[21]
*15 io_in[22]
*16 io_in[23]
*17 io_in[24]
*18 io_in[25]
*19 io_in[26]
*20 io_in[27]
*21 io_in[28]
*22 io_in[29]
*23 io_in[2]
*24 io_in[30]
*25 io_in[31]
*26 io_in[32]
*27 io_in[33]
*28 io_in[34]
*29 io_in[35]
*30 io_in[36]
*31 io_in[37]
*32 io_in[3]
*33 io_in[4]
*34 io_in[5]
*35 io_in[6]
*36 io_in[7]
*37 io_in[8]
*38 io_in[9]
*39 io_oeb[0]
*40 io_oeb[10]
*41 io_oeb[11]
*42 io_oeb[12]
*43 io_oeb[13]
*44 io_oeb[14]
*45 io_oeb[15]
*46 io_oeb[16]
*47 io_oeb[17]
*48 io_oeb[18]
*49 io_oeb[19]
*50 io_oeb[1]
*51 io_oeb[20]
*52 io_oeb[21]
*53 io_oeb[22]
*54 io_oeb[23]
*55 io_oeb[24]
*56 io_oeb[25]
*57 io_oeb[26]
*58 io_oeb[27]
*59 io_oeb[28]
*60 io_oeb[29]
*61 io_oeb[2]
*62 io_oeb[30]
*63 io_oeb[31]
*64 io_oeb[32]
*65 io_oeb[33]
*66 io_oeb[34]
*67 io_oeb[35]
*68 io_oeb[36]
*69 io_oeb[37]
*70 io_oeb[3]
*71 io_oeb[4]
*72 io_oeb[5]
*73 io_oeb[6]
*74 io_oeb[7]
*75 io_oeb[8]
*76 io_oeb[9]
*77 io_out[0]
*78 io_out[10]
*79 io_out[11]
*80 io_out[12]
*81 io_out[13]
*82 io_out[14]
*83 io_out[15]
*84 io_out[16]
*85 io_out[17]
*86 io_out[18]
*87 io_out[19]
*88 io_out[1]
*89 io_out[20]
*90 io_out[21]
*91 io_out[22]
*92 io_out[23]
*93 io_out[24]
*94 io_out[25]
*95 io_out[26]
*96 io_out[27]
*97 io_out[28]
*98 io_out[29]
*99 io_out[2]
*100 io_out[30]
*101 io_out[31]
*102 io_out[32]
*103 io_out[33]
*104 io_out[34]
*105 io_out[35]
*106 io_out[36]
*107 io_out[37]
*108 io_out[3]
*109 io_out[4]
*110 io_out[5]
*111 io_out[6]
*112 io_out[7]
*113 io_out[8]
*114 io_out[9]
*115 la_data_in[0]
*116 la_data_in[10]
*117 la_data_in[11]
*118 la_data_in[12]
*119 la_data_in[13]
*120 la_data_in[14]
*121 la_data_in[15]
*122 la_data_in[16]
*123 la_data_in[17]
*124 la_data_in[18]
*125 la_data_in[19]
*126 la_data_in[1]
*127 la_data_in[20]
*128 la_data_in[21]
*129 la_data_in[22]
*130 la_data_in[23]
*131 la_data_in[24]
*132 la_data_in[25]
*133 la_data_in[26]
*134 la_data_in[27]
*135 la_data_in[28]
*136 la_data_in[29]
*137 la_data_in[2]
*138 la_data_in[30]
*139 la_data_in[31]
*140 la_data_in[32]
*141 la_data_in[33]
*142 la_data_in[34]
*143 la_data_in[35]
*144 la_data_in[36]
*145 la_data_in[37]
*146 la_data_in[38]
*147 la_data_in[39]
*148 la_data_in[3]
*149 la_data_in[40]
*150 la_data_in[41]
*151 la_data_in[42]
*152 la_data_in[43]
*153 la_data_in[44]
*154 la_data_in[45]
*155 la_data_in[46]
*156 la_data_in[47]
*157 la_data_in[48]
*158 la_data_in[49]
*159 la_data_in[4]
*160 la_data_in[50]
*161 la_data_in[51]
*162 la_data_in[52]
*163 la_data_in[53]
*164 la_data_in[54]
*165 la_data_in[55]
*166 la_data_in[56]
*167 la_data_in[57]
*168 la_data_in[58]
*169 la_data_in[59]
*170 la_data_in[5]
*171 la_data_in[60]
*172 la_data_in[61]
*173 la_data_in[62]
*174 la_data_in[63]
*175 la_data_in[6]
*176 la_data_in[7]
*177 la_data_in[8]
*178 la_data_in[9]
*179 la_data_out[0]
*180 la_data_out[10]
*181 la_data_out[11]
*182 la_data_out[12]
*183 la_data_out[13]
*184 la_data_out[14]
*185 la_data_out[15]
*186 la_data_out[16]
*187 la_data_out[17]
*188 la_data_out[18]
*189 la_data_out[19]
*190 la_data_out[1]
*191 la_data_out[20]
*192 la_data_out[21]
*193 la_data_out[22]
*194 la_data_out[23]
*195 la_data_out[24]
*196 la_data_out[25]
*197 la_data_out[26]
*198 la_data_out[27]
*199 la_data_out[28]
*200 la_data_out[29]
*201 la_data_out[2]
*202 la_data_out[30]
*203 la_data_out[31]
*204 la_data_out[32]
*205 la_data_out[33]
*206 la_data_out[34]
*207 la_data_out[35]
*208 la_data_out[36]
*209 la_data_out[37]
*210 la_data_out[38]
*211 la_data_out[39]
*212 la_data_out[3]
*213 la_data_out[40]
*214 la_data_out[41]
*215 la_data_out[42]
*216 la_data_out[43]
*217 la_data_out[44]
*218 la_data_out[45]
*219 la_data_out[46]
*220 la_data_out[47]
*221 la_data_out[48]
*222 la_data_out[49]
*223 la_data_out[4]
*224 la_data_out[50]
*225 la_data_out[51]
*226 la_data_out[52]
*227 la_data_out[53]
*228 la_data_out[54]
*229 la_data_out[55]
*230 la_data_out[56]
*231 la_data_out[57]
*232 la_data_out[58]
*233 la_data_out[59]
*234 la_data_out[5]
*235 la_data_out[60]
*236 la_data_out[61]
*237 la_data_out[62]
*238 la_data_out[63]
*239 la_data_out[6]
*240 la_data_out[7]
*241 la_data_out[8]
*242 la_data_out[9]
*243 la_oenb[0]
*244 la_oenb[10]
*245 la_oenb[11]
*246 la_oenb[12]
*247 la_oenb[13]
*248 la_oenb[14]
*249 la_oenb[15]
*250 la_oenb[16]
*251 la_oenb[17]
*252 la_oenb[18]
*253 la_oenb[19]
*254 la_oenb[1]
*255 la_oenb[20]
*256 la_oenb[21]
*257 la_oenb[22]
*258 la_oenb[23]
*259 la_oenb[24]
*260 la_oenb[25]
*261 la_oenb[26]
*262 la_oenb[27]
*263 la_oenb[28]
*264 la_oenb[29]
*265 la_oenb[2]
*266 la_oenb[30]
*267 la_oenb[31]
*268 la_oenb[32]
*269 la_oenb[33]
*270 la_oenb[34]
*271 la_oenb[35]
*272 la_oenb[36]
*273 la_oenb[37]
*274 la_oenb[38]
*275 la_oenb[39]
*276 la_oenb[3]
*277 la_oenb[40]
*278 la_oenb[41]
*279 la_oenb[42]
*280 la_oenb[43]
*281 la_oenb[44]
*282 la_oenb[45]
*283 la_oenb[46]
*284 la_oenb[47]
*285 la_oenb[48]
*286 la_oenb[49]
*287 la_oenb[4]
*288 la_oenb[50]
*289 la_oenb[51]
*290 la_oenb[52]
*291 la_oenb[53]
*292 la_oenb[54]
*293 la_oenb[55]
*294 la_oenb[56]
*295 la_oenb[57]
*296 la_oenb[58]
*297 la_oenb[59]
*298 la_oenb[5]
*299 la_oenb[60]
*300 la_oenb[61]
*301 la_oenb[62]
*302 la_oenb[63]
*303 la_oenb[6]
*304 la_oenb[7]
*305 la_oenb[8]
*306 la_oenb[9]
*307 user_clock2
*308 user_irq[0]
*309 user_irq[1]
*310 user_irq[2]
*313 wb_clk_i
*314 wb_rst_i
*315 wbs_ack_o
*316 wbs_adr_i[0]
*317 wbs_adr_i[10]
*318 wbs_adr_i[11]
*319 wbs_adr_i[12]
*320 wbs_adr_i[13]
*321 wbs_adr_i[14]
*322 wbs_adr_i[15]
*323 wbs_adr_i[16]
*324 wbs_adr_i[17]
*325 wbs_adr_i[18]
*326 wbs_adr_i[19]
*327 wbs_adr_i[1]
*328 wbs_adr_i[20]
*329 wbs_adr_i[21]
*330 wbs_adr_i[22]
*331 wbs_adr_i[23]
*332 wbs_adr_i[24]
*333 wbs_adr_i[25]
*334 wbs_adr_i[26]
*335 wbs_adr_i[27]
*336 wbs_adr_i[28]
*337 wbs_adr_i[29]
*338 wbs_adr_i[2]
*339 wbs_adr_i[30]
*340 wbs_adr_i[31]
*341 wbs_adr_i[3]
*342 wbs_adr_i[4]
*343 wbs_adr_i[5]
*344 wbs_adr_i[6]
*345 wbs_adr_i[7]
*346 wbs_adr_i[8]
*347 wbs_adr_i[9]
*348 wbs_cyc_i
*349 wbs_dat_i[0]
*350 wbs_dat_i[10]
*351 wbs_dat_i[11]
*352 wbs_dat_i[12]
*353 wbs_dat_i[13]
*354 wbs_dat_i[14]
*355 wbs_dat_i[15]
*356 wbs_dat_i[16]
*357 wbs_dat_i[17]
*358 wbs_dat_i[18]
*359 wbs_dat_i[19]
*360 wbs_dat_i[1]
*361 wbs_dat_i[20]
*362 wbs_dat_i[21]
*363 wbs_dat_i[22]
*364 wbs_dat_i[23]
*365 wbs_dat_i[24]
*366 wbs_dat_i[25]
*367 wbs_dat_i[26]
*368 wbs_dat_i[27]
*369 wbs_dat_i[28]
*370 wbs_dat_i[29]
*371 wbs_dat_i[2]
*372 wbs_dat_i[30]
*373 wbs_dat_i[31]
*374 wbs_dat_i[3]
*375 wbs_dat_i[4]
*376 wbs_dat_i[5]
*377 wbs_dat_i[6]
*378 wbs_dat_i[7]
*379 wbs_dat_i[8]
*380 wbs_dat_i[9]
*381 wbs_dat_o[0]
*382 wbs_dat_o[10]
*383 wbs_dat_o[11]
*384 wbs_dat_o[12]
*385 wbs_dat_o[13]
*386 wbs_dat_o[14]
*387 wbs_dat_o[15]
*388 wbs_dat_o[16]
*389 wbs_dat_o[17]
*390 wbs_dat_o[18]
*391 wbs_dat_o[19]
*392 wbs_dat_o[1]
*393 wbs_dat_o[20]
*394 wbs_dat_o[21]
*395 wbs_dat_o[22]
*396 wbs_dat_o[23]
*397 wbs_dat_o[24]
*398 wbs_dat_o[25]
*399 wbs_dat_o[26]
*400 wbs_dat_o[27]
*401 wbs_dat_o[28]
*402 wbs_dat_o[29]
*403 wbs_dat_o[2]
*404 wbs_dat_o[30]
*405 wbs_dat_o[31]
*406 wbs_dat_o[3]
*407 wbs_dat_o[4]
*408 wbs_dat_o[5]
*409 wbs_dat_o[6]
*410 wbs_dat_o[7]
*411 wbs_dat_o[8]
*412 wbs_dat_o[9]
*413 wbs_sel_i[0]
*414 wbs_sel_i[1]
*415 wbs_sel_i[2]
*416 wbs_sel_i[3]
*417 wbs_stb_i
*418 wbs_we_i
*419 top_wrapper

*PORTS
io_in[0] I
io_in[10] I
io_in[11] I
io_in[12] I
io_in[13] I
io_in[14] I
io_in[15] I
io_in[16] I
io_in[17] I
io_in[18] I
io_in[19] I
io_in[1] I
io_in[20] I
io_in[21] I
io_in[22] I
io_in[23] I
io_in[24] I
io_in[25] I
io_in[26] I
io_in[27] I
io_in[28] I
io_in[29] I
io_in[2] I
io_in[30] I
io_in[31] I
io_in[32] I
io_in[33] I
io_in[34] I
io_in[35] I
io_in[36] I
io_in[37] I
io_in[3] I
io_in[4] I
io_in[5] I
io_in[6] I
io_in[7] I
io_in[8] I
io_in[9] I
io_oeb[0] O
io_oeb[10] O
io_oeb[11] O
io_oeb[12] O
io_oeb[13] O
io_oeb[14] O
io_oeb[15] O
io_oeb[16] O
io_oeb[17] O
io_oeb[18] O
io_oeb[19] O
io_oeb[1] O
io_oeb[20] O
io_oeb[21] O
io_oeb[22] O
io_oeb[23] O
io_oeb[24] O
io_oeb[25] O
io_oeb[26] O
io_oeb[27] O
io_oeb[28] O
io_oeb[29] O
io_oeb[2] O
io_oeb[30] O
io_oeb[31] O
io_oeb[32] O
io_oeb[33] O
io_oeb[34] O
io_oeb[35] O
io_oeb[36] O
io_oeb[37] O
io_oeb[3] O
io_oeb[4] O
io_oeb[5] O
io_oeb[6] O
io_oeb[7] O
io_oeb[8] O
io_oeb[9] O
io_out[0] O
io_out[10] O
io_out[11] O
io_out[12] O
io_out[13] O
io_out[14] O
io_out[15] O
io_out[16] O
io_out[17] O
io_out[18] O
io_out[19] O
io_out[1] O
io_out[20] O
io_out[21] O
io_out[22] O
io_out[23] O
io_out[24] O
io_out[25] O
io_out[26] O
io_out[27] O
io_out[28] O
io_out[29] O
io_out[2] O
io_out[30] O
io_out[31] O
io_out[32] O
io_out[33] O
io_out[34] O
io_out[35] O
io_out[36] O
io_out[37] O
io_out[3] O
io_out[4] O
io_out[5] O
io_out[6] O
io_out[7] O
io_out[8] O
io_out[9] O
la_data_in[0] I
la_data_in[10] I
la_data_in[11] I
la_data_in[12] I
la_data_in[13] I
la_data_in[14] I
la_data_in[15] I
la_data_in[16] I
la_data_in[17] I
la_data_in[18] I
la_data_in[19] I
la_data_in[1] I
la_data_in[20] I
la_data_in[21] I
la_data_in[22] I
la_data_in[23] I
la_data_in[24] I
la_data_in[25] I
la_data_in[26] I
la_data_in[27] I
la_data_in[28] I
la_data_in[29] I
la_data_in[2] I
la_data_in[30] I
la_data_in[31] I
la_data_in[32] I
la_data_in[33] I
la_data_in[34] I
la_data_in[35] I
la_data_in[36] I
la_data_in[37] I
la_data_in[38] I
la_data_in[39] I
la_data_in[3] I
la_data_in[40] I
la_data_in[41] I
la_data_in[42] I
la_data_in[43] I
la_data_in[44] I
la_data_in[45] I
la_data_in[46] I
la_data_in[47] I
la_data_in[48] I
la_data_in[49] I
la_data_in[4] I
la_data_in[50] I
la_data_in[51] I
la_data_in[52] I
la_data_in[53] I
la_data_in[54] I
la_data_in[55] I
la_data_in[56] I
la_data_in[57] I
la_data_in[58] I
la_data_in[59] I
la_data_in[5] I
la_data_in[60] I
la_data_in[61] I
la_data_in[62] I
la_data_in[63] I
la_data_in[6] I
la_data_in[7] I
la_data_in[8] I
la_data_in[9] I
la_data_out[0] O
la_data_out[10] O
la_data_out[11] O
la_data_out[12] O
la_data_out[13] O
la_data_out[14] O
la_data_out[15] O
la_data_out[16] O
la_data_out[17] O
la_data_out[18] O
la_data_out[19] O
la_data_out[1] O
la_data_out[20] O
la_data_out[21] O
la_data_out[22] O
la_data_out[23] O
la_data_out[24] O
la_data_out[25] O
la_data_out[26] O
la_data_out[27] O
la_data_out[28] O
la_data_out[29] O
la_data_out[2] O
la_data_out[30] O
la_data_out[31] O
la_data_out[32] O
la_data_out[33] O
la_data_out[34] O
la_data_out[35] O
la_data_out[36] O
la_data_out[37] O
la_data_out[38] O
la_data_out[39] O
la_data_out[3] O
la_data_out[40] O
la_data_out[41] O
la_data_out[42] O
la_data_out[43] O
la_data_out[44] O
la_data_out[45] O
la_data_out[46] O
la_data_out[47] O
la_data_out[48] O
la_data_out[49] O
la_data_out[4] O
la_data_out[50] O
la_data_out[51] O
la_data_out[52] O
la_data_out[53] O
la_data_out[54] O
la_data_out[55] O
la_data_out[56] O
la_data_out[57] O
la_data_out[58] O
la_data_out[59] O
la_data_out[5] O
la_data_out[60] O
la_data_out[61] O
la_data_out[62] O
la_data_out[63] O
la_data_out[6] O
la_data_out[7] O
la_data_out[8] O
la_data_out[9] O
la_oenb[0] I
la_oenb[10] I
la_oenb[11] I
la_oenb[12] I
la_oenb[13] I
la_oenb[14] I
la_oenb[15] I
la_oenb[16] I
la_oenb[17] I
la_oenb[18] I
la_oenb[19] I
la_oenb[1] I
la_oenb[20] I
la_oenb[21] I
la_oenb[22] I
la_oenb[23] I
la_oenb[24] I
la_oenb[25] I
la_oenb[26] I
la_oenb[27] I
la_oenb[28] I
la_oenb[29] I
la_oenb[2] I
la_oenb[30] I
la_oenb[31] I
la_oenb[32] I
la_oenb[33] I
la_oenb[34] I
la_oenb[35] I
la_oenb[36] I
la_oenb[37] I
la_oenb[38] I
la_oenb[39] I
la_oenb[3] I
la_oenb[40] I
la_oenb[41] I
la_oenb[42] I
la_oenb[43] I
la_oenb[44] I
la_oenb[45] I
la_oenb[46] I
la_oenb[47] I
la_oenb[48] I
la_oenb[49] I
la_oenb[4] I
la_oenb[50] I
la_oenb[51] I
la_oenb[52] I
la_oenb[53] I
la_oenb[54] I
la_oenb[55] I
la_oenb[56] I
la_oenb[57] I
la_oenb[58] I
la_oenb[59] I
la_oenb[5] I
la_oenb[60] I
la_oenb[61] I
la_oenb[62] I
la_oenb[63] I
la_oenb[6] I
la_oenb[7] I
la_oenb[8] I
la_oenb[9] I
user_clock2 I
user_irq[0] O
user_irq[1] O
user_irq[2] O
wb_clk_i I
wb_rst_i I
wbs_ack_o O
wbs_adr_i[0] I
wbs_adr_i[10] I
wbs_adr_i[11] I
wbs_adr_i[12] I
wbs_adr_i[13] I
wbs_adr_i[14] I
wbs_adr_i[15] I
wbs_adr_i[16] I
wbs_adr_i[17] I
wbs_adr_i[18] I
wbs_adr_i[19] I
wbs_adr_i[1] I
wbs_adr_i[20] I
wbs_adr_i[21] I
wbs_adr_i[22] I
wbs_adr_i[23] I
wbs_adr_i[24] I
wbs_adr_i[25] I
wbs_adr_i[26] I
wbs_adr_i[27] I
wbs_adr_i[28] I
wbs_adr_i[29] I
wbs_adr_i[2] I
wbs_adr_i[30] I
wbs_adr_i[31] I
wbs_adr_i[3] I
wbs_adr_i[4] I
wbs_adr_i[5] I
wbs_adr_i[6] I
wbs_adr_i[7] I
wbs_adr_i[8] I
wbs_adr_i[9] I
wbs_cyc_i I
wbs_dat_i[0] I
wbs_dat_i[10] I
wbs_dat_i[11] I
wbs_dat_i[12] I
wbs_dat_i[13] I
wbs_dat_i[14] I
wbs_dat_i[15] I
wbs_dat_i[16] I
wbs_dat_i[17] I
wbs_dat_i[18] I
wbs_dat_i[19] I
wbs_dat_i[1] I
wbs_dat_i[20] I
wbs_dat_i[21] I
wbs_dat_i[22] I
wbs_dat_i[23] I
wbs_dat_i[24] I
wbs_dat_i[25] I
wbs_dat_i[26] I
wbs_dat_i[27] I
wbs_dat_i[28] I
wbs_dat_i[29] I
wbs_dat_i[2] I
wbs_dat_i[30] I
wbs_dat_i[31] I
wbs_dat_i[3] I
wbs_dat_i[4] I
wbs_dat_i[5] I
wbs_dat_i[6] I
wbs_dat_i[7] I
wbs_dat_i[8] I
wbs_dat_i[9] I
wbs_dat_o[0] O
wbs_dat_o[10] O
wbs_dat_o[11] O
wbs_dat_o[12] O
wbs_dat_o[13] O
wbs_dat_o[14] O
wbs_dat_o[15] O
wbs_dat_o[16] O
wbs_dat_o[17] O
wbs_dat_o[18] O
wbs_dat_o[19] O
wbs_dat_o[1] O
wbs_dat_o[20] O
wbs_dat_o[21] O
wbs_dat_o[22] O
wbs_dat_o[23] O
wbs_dat_o[24] O
wbs_dat_o[25] O
wbs_dat_o[26] O
wbs_dat_o[27] O
wbs_dat_o[28] O
wbs_dat_o[29] O
wbs_dat_o[2] O
wbs_dat_o[30] O
wbs_dat_o[31] O
wbs_dat_o[3] O
wbs_dat_o[4] O
wbs_dat_o[5] O
wbs_dat_o[6] O
wbs_dat_o[7] O
wbs_dat_o[8] O
wbs_dat_o[9] O
wbs_sel_i[0] I
wbs_sel_i[1] I
wbs_sel_i[2] I
wbs_sel_i[3] I
wbs_stb_i I
wbs_we_i I

*D_NET *1 0.338454
*CONN
*P io_in[0] I
*I *419:io_in[0] I *D top_wrapper
*CAP
1 io_in[0] 0.00051408
2 *419:io_in[0] 4.85048e-05
3 *1:11 0.0367055
4 *1:10 0.036657
5 *1:8 0.0390484
6 *1:7 0.0395624
7 *1:8 *12:8 0.185918
*RES
1 io_in[0] *1:7 8.685 
2 *1:7 *1:8 536.49 
3 *1:8 *1:10 4.5 
4 *1:10 *1:11 286.47 
5 *1:11 *419:io_in[0] 0.405 
*END

*D_NET *2 0.086588
*CONN
*P io_in[10] I
*I *419:io_in[10] I *D top_wrapper
*CAP
1 io_in[10] 0.00466579
2 *419:io_in[10] 0.00321621
3 *2:9 0.0350048
4 *2:7 0.0364544
5 *419:io_in[10] *78:10 0.00116028
6 *419:io_in[10] *114:8 0.00608651
7 *2:9 *419:io_in[8] 0
*RES
1 io_in[10] *2:7 37.305 
2 *2:7 *2:9 249.48 
3 *2:9 *419:io_in[10] 38.295 
*END

*D_NET *3 0.0827564
*CONN
*P io_in[11] I
*I *419:io_in[11] I *D top_wrapper
*CAP
1 io_in[11] 0.00426439
2 *419:io_in[11] 0.00135819
3 *3:11 0.0362844
4 *3:10 0.0391906
5 *3:10 *4:8 0.000171428
6 *3:10 *5:8 0.000548173
7 *3:10 *79:10 0.000235341
8 *3:10 *80:14 0.000653315
9 *3:10 *81:7 5.06472e-05
*RES
1 io_in[11] *3:10 46.575 
2 *3:10 *3:11 274.14 
3 *3:11 *419:io_in[11] 10.395 
*END

*D_NET *4 0.125
*CONN
*P io_in[12] I
*I *419:io_in[12] I *D top_wrapper
*CAP
1 io_in[12] 0.000902119
2 *419:io_in[12] 0.000113178
3 *4:11 0.0362672
4 *4:10 0.036154
5 *4:8 0.00289315
6 *4:7 0.00379526
7 *4:8 *79:10 0.0145293
8 *4:8 *80:14 0.0301746
9 *3:10 *4:8 0.000171428
*RES
1 io_in[12] *4:7 11.925 
2 *4:7 *4:8 79.47 
3 *4:8 *4:10 4.5 
4 *4:10 *4:11 283.23 
5 *4:11 *419:io_in[12] 0.945 
*END

*D_NET *5 0.166536
*CONN
*P io_in[13] I
*I *419:io_in[13] I *D top_wrapper
*CAP
1 io_in[13] 0.000945234
2 *419:io_in[13] 0.00142623
3 *5:11 0.0364376
4 *5:10 0.0350114
5 *5:8 0.00295043
6 *5:7 0.00389567
7 *5:8 *80:14 0.0353513
8 *5:8 *81:10 0.0499694
9 *3:10 *5:8 0.000548173
*RES
1 io_in[13] *5:7 12.285 
2 *5:7 *5:8 132.39 
3 *5:8 *5:10 4.5 
4 *5:10 *5:11 274.68 
5 *5:11 *419:io_in[13] 10.935 
*END

*D_NET *6 0.206114
*CONN
*P io_in[14] I
*I *419:io_in[14] I *D top_wrapper
*CAP
1 io_in[14] 0.00125228
2 *419:io_in[14] 0.00129352
3 *6:11 0.0362393
4 *6:10 0.0349457
5 *6:8 0.00314985
6 *6:7 0.00440213
7 *6:8 *81:10 0.0551208
8 *6:8 *82:12 0.0697104
*RES
1 io_in[14] *6:7 12.645 
2 *6:7 *6:8 182.61 
3 *6:8 *6:10 4.5 
4 *6:10 *6:11 274.32 
5 *6:11 *419:io_in[14] 9.855 
*END

*D_NET *7 0.128925
*CONN
*P io_in[15] I
*I *419:io_in[15] I *D top_wrapper
*CAP
1 io_in[15] 0.0276176
2 *419:io_in[15] 0.00110412
3 *7:8 0.0368447
4 *7:7 0.0357406
5 *7:5 0.0276176
*RES
1 io_in[15] *7:5 213.525 
2 *7:5 *7:7 4.5 
3 *7:7 *7:8 279.45 
4 *7:8 *419:io_in[15] 12.465 
*END

*D_NET *8 0.109822
*CONN
*P io_in[16] I
*I *419:io_in[16] I *D top_wrapper
*CAP
1 io_in[16] 0.000247817
2 *419:io_in[16] 0.00143286
3 *8:16 0.0273844
4 *8:15 0.0259515
5 *8:13 0.0272786
6 *8:11 0.0275264
*RES
1 io_in[16] *8:11 2.655 
2 *8:11 *8:13 210.87 
3 *8:13 *8:15 4.5 
4 *8:15 *8:16 203.31 
5 *8:16 *419:io_in[16] 15.165 
*END

*D_NET *9 0.090675
*CONN
*P io_in[17] I
*I *419:io_in[17] I *D top_wrapper
*CAP
1 io_in[17] 0.00107486
2 *419:io_in[17] 0.00177757
3 *9:14 0.0108349
4 *9:13 0.00905728
5 *9:11 0.0258887
6 *9:10 0.0258887
7 *9:8 0.00753902
8 *9:7 0.00861389
*RES
1 io_in[17] *9:7 12.825 
2 *9:7 *9:8 58.77 
3 *9:8 *9:10 4.5 
4 *9:10 *9:11 199.89 
5 *9:11 *9:13 4.5 
6 *9:13 *9:14 71.73 
7 *9:14 *419:io_in[17] 17.865 
*END

*D_NET *10 0.0795354
*CONN
*P io_in[18] I
*I *419:io_in[18] I *D top_wrapper
*CAP
1 io_in[18] 0.000382975
2 *419:io_in[18] 0.00071148
3 *10:16 0.00453718
4 *10:15 0.0038257
5 *10:13 0.0280091
6 *10:11 0.0283921
7 *10:13 *84:7 1.47961e-05
8 *10:16 *84:8 0.000239735
9 *10:16 *85:8 0.00588494
10 *10:16 *86:10 0.0075373
*RES
1 io_in[18] *10:11 3.195 
2 *10:11 *10:13 216.27 
3 *10:13 *10:15 4.5 
4 *10:15 *10:16 53.73 
5 *10:16 *419:io_in[18] 9.765 
*END

*D_NET *11 0.0655426
*CONN
*P io_in[19] I
*I *419:io_in[19] I *D top_wrapper
*CAP
1 io_in[19] 0.000178873
2 *419:io_in[19] 0.00278722
3 *11:13 0.0307191
4 *11:11 0.0281108
5 *419:io_in[19] *87:10 0.00374657
*RES
1 io_in[19] *11:11 2.115 
2 *11:11 *11:13 216.09 
3 *11:13 *419:io_in[19] 34.335 
*END

*D_NET *12 0.435936
*CONN
*P io_in[1] I
*I *419:io_in[1] I *D top_wrapper
*CAP
1 io_in[1] 0.000492522
2 *419:io_in[1] 0.00146382
3 *12:11 0.0369245
4 *12:10 0.0354607
5 *12:8 0.00504244
6 *12:7 0.00553496
7 *12:8 *23:8 0.165098
8 *1:8 *12:8 0.185918
*RES
1 io_in[1] *12:7 8.505 
2 *12:7 *12:8 483.57 
3 *12:8 *12:10 4.5 
4 *12:10 *12:11 278.46 
5 *12:11 *419:io_in[1] 10.395 
*END

*D_NET *13 0.0815574
*CONN
*P io_in[20] I
*I *419:io_in[20] I *D top_wrapper
*CAP
1 io_in[20] 0.0276655
2 *419:io_in[20] 0.00107217
3 *13:8 0.0131132
4 *13:7 0.012041
5 *13:5 0.0276655
6 *13:8 *419:io_in[21] 0
*RES
1 io_in[20] *13:5 213.525 
2 *13:5 *13:7 4.5 
3 *13:7 *13:8 93.33 
4 *13:8 *419:io_in[20] 12.465 
*END

*D_NET *14 0.100201
*CONN
*P io_in[21] I
*I *419:io_in[21] I *D top_wrapper
*CAP
1 io_in[21] 0.00107486
2 *419:io_in[21] 0.00143709
3 *14:11 0.0282311
4 *14:10 0.026794
5 *14:8 0.0207944
6 *14:7 0.0218693
7 *13:8 *419:io_in[21] 0
*RES
1 io_in[21] *14:7 12.825 
2 *14:7 *14:8 164.07 
3 *14:8 *14:10 4.5 
4 *14:10 *14:11 206.73 
5 *14:11 *419:io_in[21] 19.035 
*END

*D_NET *15 0.119371
*CONN
*P io_in[22] I
*I *419:io_in[22] I *D top_wrapper
*CAP
1 io_in[22] 0.00480629
2 *419:io_in[22] 0.00143285
3 *15:12 0.0323304
4 *15:11 0.0308976
5 *15:9 0.0225487
6 *15:7 0.027355
*RES
1 io_in[22] *15:7 37.305 
2 *15:7 *15:9 174.24 
3 *15:9 *15:11 4.5 
4 *15:11 *15:12 242.91 
5 *15:12 *419:io_in[22] 15.165 
*END

*D_NET *16 0.139503
*CONN
*P io_in[23] I
*I *419:io_in[23] I *D top_wrapper
*CAP
1 io_in[23] 0.000345489
2 *419:io_in[23] 0.00108814
3 *16:16 0.0417825
4 *16:15 0.0406943
5 *16:13 0.0276234
6 *16:11 0.0279688
*RES
1 io_in[23] *16:11 3.195 
2 *16:11 *16:13 213.57 
3 *16:13 *16:15 4.5 
4 *16:15 *16:16 319.05 
5 *16:16 *419:io_in[23] 12.465 
*END

*D_NET *17 0.201353
*CONN
*P io_in[24] I
*I *419:io_in[24] I *D top_wrapper
*CAP
1 io_in[24] 0.000852903
2 *419:io_in[24] 0.0473139
3 *17:10 0.0473139
4 *17:8 0.0153095
5 *17:7 0.0161624
6 *17:8 *93:10 0.0744005
*RES
1 io_in[24] *17:7 10.665 
2 *17:7 *17:8 211.95 
3 *17:8 *17:10 4.5 
4 *17:10 *419:io_in[24] 371.025 
*END

*D_NET *18 0.212157
*CONN
*P io_in[25] I
*I *419:io_in[25] I *D top_wrapper
*CAP
1 io_in[25] 0.000930362
2 *419:io_in[25] 0.0472364
3 *18:10 0.0472364
4 *18:8 0.00210249
5 *18:7 0.00303286
6 *18:8 *93:10 0.058669
7 *18:8 *94:10 0.0529494
*RES
1 io_in[25] *18:7 11.025 
2 *18:7 *18:8 157.41 
3 *18:8 *18:10 4.5 
4 *18:10 *419:io_in[25] 370.665 
*END

*D_NET *19 0.169353
*CONN
*P io_in[26] I
*I *419:io_in[26] I *D top_wrapper
*CAP
1 io_in[26] 0.00100782
2 *419:io_in[26] 0.0471589
3 *19:10 0.0471589
4 *19:8 0.00182087
5 *19:7 0.00282869
6 *19:8 io_out[27] 0.00065769
7 *19:8 *94:10 0.0372292
8 *19:8 *95:10 0.0314907
*RES
1 io_in[26] *19:7 11.385 
2 *19:7 *19:8 102.87 
3 *19:8 *19:10 4.5 
4 *19:10 *419:io_in[26] 370.305 
*END

*D_NET *20 0.11993
*CONN
*P io_in[27] I
*I *419:io_in[27] I *D top_wrapper
*CAP
1 io_in[27] 0.00126106
2 *419:io_in[27] 0.0470815
3 *20:10 0.0470815
4 *20:8 0.00362863
5 *20:7 0.00488969
6 *20:8 io_out[27] 0.000239096
7 *20:8 *95:10 0.0157491
*RES
1 io_in[27] *20:7 11.745 
2 *20:7 *20:8 48.33 
3 *20:8 *20:10 4.5 
4 *20:10 *419:io_in[27] 369.945 
*END

*D_NET *21 0.0988203
*CONN
*P io_in[28] I
*I *419:io_in[28] I *D top_wrapper
*CAP
1 io_in[28] 0.000249598
2 *419:io_in[28] 0.00171331
3 *21:13 0.0491606
4 *21:11 0.0476968
5 *419:io_in[28] *97:10 0
*RES
1 io_in[28] *21:11 2.475 
2 *21:11 *21:13 372.15 
3 *21:13 *419:io_in[28] 22.275 
*END

*D_NET *22 0.13262
*CONN
*P io_in[29] I
*I *419:io_in[29] I *D top_wrapper
*CAP
1 io_in[29] 0.000177869
2 *419:io_in[29] 0.000466579
3 *22:16 0.00313925
4 *22:15 0.00267267
5 *22:13 0.0477184
6 *22:11 0.0478963
7 *22:16 *97:10 0.00637201
8 *22:16 *98:8 0.0226198
9 *22:16 *101:8 0.000384195
10 *22:16 *102:8 0.000869899
11 *22:16 *103:8 0.000303341
*RES
1 io_in[29] *22:11 1.935 
2 *22:11 *22:13 373.59 
3 *22:13 *22:15 4.5 
4 *22:15 *22:16 62.19 
5 *22:16 *419:io_in[29] 8.145 
*END

*D_NET *23 0.395361
*CONN
*P io_in[2] I
*I *419:io_in[2] I *D top_wrapper
*CAP
1 io_in[2] 0.000470965
2 *419:io_in[2] 0.000113178
3 *23:11 0.0367947
4 *23:10 0.0366815
5 *23:8 0.00519566
6 *23:7 0.00566663
7 *23:8 *32:8 0.14534
8 *12:8 *23:8 0.165098
*RES
1 io_in[2] *23:7 8.325 
2 *23:7 *23:8 433.35 
3 *23:8 *23:10 4.5 
4 *23:10 *23:11 286.83 
5 *23:11 *419:io_in[2] 0.945 
*END

*D_NET *24 0.126772
*CONN
*P io_in[30] I
*I *419:io_in[30] I *D top_wrapper
*CAP
1 io_in[30] 0.000113196
2 *419:io_in[30] 0.0382956
3 *24:18 0.0382956
4 *24:16 0.0151314
5 *24:15 0.0151314
6 *24:13 0.00984601
7 *24:11 0.0099592
*RES
1 io_in[30] *24:11 1.395 
2 *24:11 *24:13 76.41 
3 *24:13 *24:15 4.5 
4 *24:15 *24:16 116.19 
5 *24:16 *24:18 4.5 
6 *24:18 *419:io_in[30] 300.825 
*END

*D_NET *25 0.140612
*CONN
*P io_in[31] I
*I *419:io_in[31] I *D top_wrapper
*CAP
1 io_in[31] 0.00177706
2 *419:io_in[31] 0.0345183
3 *25:14 0.0345183
4 *25:12 0.0221241
5 *25:11 0.0221241
6 *25:9 0.0118865
7 *25:7 0.0136636
*RES
1 io_in[31] *25:7 13.185 
2 *25:7 *25:9 93.24 
3 *25:9 *25:11 4.5 
4 *25:11 *25:12 170.19 
5 *25:12 *25:14 4.5 
6 *25:14 *419:io_in[31] 271.125 
*END

*D_NET *26 0.177443
*CONN
*P io_in[32] I
*I *419:io_in[32] I *D top_wrapper
*CAP
1 io_in[32] 0.00290018
2 *419:io_in[32] 0.0563567
3 *26:18 0.0563567
4 *26:16 0.0294645
5 *26:15 0.0323647
*RES
1 io_in[32] *26:15 27.225 
2 *26:15 *26:16 226.89 
3 *26:16 *26:18 4.5 
4 *26:18 *419:io_in[32] 357.525 
*END

*D_NET *27 0.169799
*CONN
*P io_in[33] I
*I *419:io_in[33] I *D top_wrapper
*CAP
1 io_in[33] 0.00378943
2 *419:io_in[33] 0.0446424
3 *27:18 0.0446424
4 *27:16 0.0364677
5 *27:15 0.0402571
*RES
1 io_in[33] *27:15 34.785 
2 *27:15 *27:16 280.89 
3 *27:16 *27:18 4.5 
4 *27:18 *419:io_in[33] 349.425 
*END

*D_NET *28 0.355654
*CONN
*P io_in[34] I
*I *419:io_in[34] I *D top_wrapper
*CAP
1 io_in[34] 0.000177869
2 *419:io_in[34] 0.000436249
3 *28:16 0.00375606
4 *28:15 0.00331981
5 *28:13 0.0477759
6 *28:11 0.0479538
7 *28:16 *98:8 0.000355192
8 *28:16 *103:8 0.113594
9 *28:16 *104:8 0.129882
10 *28:16 *106:8 0.00840275
*RES
1 io_in[34] *28:11 1.935 
2 *28:11 *28:13 374.13 
3 *28:13 *28:15 4.5 
4 *28:15 *28:16 334.89 
5 *28:16 *419:io_in[34] 7.605 
*END

*D_NET *29 0.40411
*CONN
*P io_in[35] I
*I *419:io_in[35] I *D top_wrapper
*CAP
1 io_in[35] 0.000113196
2 *419:io_in[35] 0.000513709
3 *29:16 0.00373977
4 *29:15 0.00322607
5 *29:13 0.0476872
6 *29:11 0.0478004
7 *29:16 *98:8 0.000491239
8 *29:16 *100:8 0.000201211
9 *29:16 *104:8 0.134851
10 *29:16 *105:8 0.151148
11 *29:16 *106:8 0.0143382
*RES
1 io_in[35] *29:11 1.395 
2 *29:11 *29:13 373.77 
3 *29:13 *29:15 4.5 
4 *29:15 *29:16 388.89 
5 *29:16 *419:io_in[35] 7.965 
*END

*D_NET *30 0.367826
*CONN
*P io_in[36] I
*I *419:io_in[36] I *D top_wrapper
*CAP
1 io_in[36] 0.00177706
2 *419:io_in[36] 0.000591168
3 *30:12 0.0283704
4 *30:11 0.0277793
5 *30:9 0.0458548
6 *30:7 0.0476319
7 *30:12 *31:16 0.00148665
8 *30:12 *100:8 0.0234002
9 *30:12 *105:8 0.157161
10 *30:12 *107:8 0.0337742
*RES
1 io_in[36] *30:7 13.185 
2 *30:7 *30:9 360.54 
3 *30:9 *30:11 4.5 
4 *30:11 *30:12 442.89 
5 *30:12 *419:io_in[36] 8.325 
*END

*D_NET *31 0.506889
*CONN
*P io_in[37] I
*I *419:io_in[37] I *D top_wrapper
*CAP
1 io_in[37] 0.000323383
2 *419:io_in[37] 0.000657934
3 *31:16 0.00499721
4 *31:15 0.00433927
5 *31:13 0.0476365
6 *31:11 0.0479599
7 *31:16 *100:8 0.000294834
8 *31:16 *105:8 0.015973
9 *31:16 *106:8 0.183242
10 *31:16 *107:8 0.199978
11 *30:12 *31:16 0.00148665
*RES
1 io_in[37] *31:11 3.015 
2 *31:11 *31:13 373.59 
3 *31:13 *31:15 4.5 
4 *31:15 *31:16 499.59 
5 *31:16 *419:io_in[37] 8.145 
*END

*D_NET *32 0.433232
*CONN
*P io_in[3] I
*I *419:io_in[3] I *D top_wrapper
*CAP
1 io_in[3] 0.000449407
2 *419:io_in[3] 0.000995618
3 *32:11 0.019727
4 *32:10 0.0187314
5 *32:8 0.00498837
6 *32:7 0.00543777
7 *32:8 *33:8 0.124538
8 *32:11 *38:13 0.113024
9 *23:8 *32:8 0.14534
*RES
1 io_in[3] *32:7 8.145 
2 *32:7 *32:8 380.43 
3 *32:8 *32:10 4.5 
4 *32:10 *32:11 283.41 
5 *32:11 *419:io_in[3] 6.345 
*END

*D_NET *33 0.314551
*CONN
*P io_in[4] I
*I *419:io_in[4] I *D top_wrapper
*CAP
1 io_in[4] 0.000538446
2 *419:io_in[4] 0.00138065
3 *33:11 0.0369041
4 *33:10 0.0355234
5 *33:8 0.00518078
6 *33:7 0.00571922
7 *33:8 *34:8 0.104766
8 *32:8 *33:8 0.124538
*RES
1 io_in[4] *33:7 7.965 
2 *33:7 *33:8 330.21 
3 *33:8 *33:10 4.5 
4 *33:10 *33:11 279 
5 *33:11 *419:io_in[4] 9.855 
*END

*D_NET *34 0.274463
*CONN
*P io_in[5] I
*I *419:io_in[5] I *D top_wrapper
*CAP
1 io_in[5] 0.000406292
2 *419:io_in[5] 4.85048e-05
3 *34:11 0.0367776
4 *34:10 0.0367291
5 *34:8 0.00514699
6 *34:7 0.00555328
7 *34:8 *35:8 0.0850352
8 *33:8 *34:8 0.104766
*RES
1 io_in[5] *34:7 7.785 
2 *34:7 *34:8 279.99 
3 *34:8 *34:10 4.5 
4 *34:10 *34:11 287.37 
5 *34:11 *419:io_in[5] 0.405 
*END

*D_NET *35 0.233885
*CONN
*P io_in[6] I
*I *419:io_in[6] I *D top_wrapper
*CAP
1 io_in[6] 0.000384734
2 *419:io_in[6] 0.00142025
3 *35:11 0.0369887
4 *35:10 0.0355685
5 *35:8 0.00494382
6 *35:7 0.00532856
7 *35:8 *36:8 0.0642152
8 *34:8 *35:8 0.0850352
*RES
1 io_in[6] *35:7 7.605 
2 *35:7 *35:8 227.07 
3 *35:8 *35:10 4.5 
4 *35:10 *35:11 279.36 
5 *35:11 *419:io_in[6] 10.395 
*END

*D_NET *36 0.16348
*CONN
*P io_in[7] I
*I *419:io_in[7] I *D top_wrapper
*CAP
1 io_in[7] 0.000363176
2 *419:io_in[7] 0.000113178
3 *36:11 0.036851
4 *36:10 0.0367378
5 *36:8 0.0124181
6 *36:7 0.0127813
7 *35:8 *36:8 0.0642152
*RES
1 io_in[7] *36:7 7.425 
2 *36:7 *36:8 176.85 
3 *36:8 *36:10 4.5 
4 *36:10 *36:11 287.73 
5 *36:11 *419:io_in[7] 0.945 
*END

*D_NET *37 0.107536
*CONN
*P io_in[8] I
*I *419:io_in[8] I *D top_wrapper
*CAP
1 io_in[8] 0.00114727
2 *419:io_in[8] 0.00145059
3 *37:11 0.0363802
4 *37:10 0.0349296
5 *37:8 0.0162406
6 *37:7 0.0173879
7 *2:9 *419:io_in[8] 0
*RES
1 io_in[8] *37:7 12.825 
2 *37:7 *37:8 123.93 
3 *37:8 *37:10 4.5 
4 *37:10 *37:11 274.14 
5 *37:11 *419:io_in[8] 10.935 
*END

*D_NET *38 0.205429
*CONN
*P io_in[9] I
*I *419:io_in[9] I *D top_wrapper
*CAP
1 io_in[9] 0.000230145
2 *419:io_in[9] 0.000571689
3 *38:16 0.00329349
4 *38:15 0.0027218
5 *38:13 0.0191084
6 *38:11 0.0193385
7 *38:16 *108:8 0.000530849
8 *38:16 *109:8 0.00069628
9 *38:16 *110:8 9.5456e-05
10 *38:16 *113:8 0.0253294
11 *38:16 *114:8 0.0204885
12 *32:11 *38:13 0.113024
*RES
1 io_in[9] *38:11 2.475 
2 *38:11 *38:13 286.47 
3 *38:13 *38:15 4.5 
4 *38:15 *38:16 76.95 
5 *38:16 *419:io_in[9] 8.685 
*END

*D_NET *77 0.347061
*CONN
*P io_out[0] O
*I *419:io_out[0] O *D top_wrapper
*CAP
1 io_out[0] 0.00463983
2 *419:io_out[0] 0.000580959
3 *77:11 0.036508
4 *77:10 0.0318681
5 *77:8 0.0493835
6 *77:7 0.0499645
7 *77:8 *88:8 0.169438
8 *77:8 *113:8 0.00467757
*RES
1 *419:io_out[0] *77:7 8.685 
2 *77:7 *77:8 520.29 
3 *77:8 *77:10 4.5 
4 *77:10 *77:11 249.84 
5 *77:11 io_out[0] 36.945 
*END

*D_NET *78 0.0772097
*CONN
*P io_out[10] O
*I *419:io_out[10] O *D top_wrapper
*CAP
1 io_out[10] 0.00462267
2 *419:io_out[10] 0.00164939
3 *78:11 0.0363753
4 *78:10 0.033402
5 *419:io_in[10] *78:10 0.00116028
*RES
1 *419:io_out[10] *78:10 21.015 
2 *78:10 *78:11 249.3 
3 *78:11 io_out[10] 36.945 
*END

*D_NET *79 0.0957881
*CONN
*P io_out[11] O
*I *419:io_out[11] O *D top_wrapper
*CAP
1 io_out[11] 0.000880561
2 *419:io_out[11] 9.16202e-05
3 *79:10 0.00424455
4 *79:7 0.0395396
5 *79:5 0.0362672
6 *3:10 *79:10 0.000235341
7 *4:8 *79:10 0.0145293
*RES
1 *419:io_out[11] *79:5 0.765 
2 *79:5 *79:7 283.41 
3 *79:7 *79:10 49.59 
4 *79:10 io_out[11] 11.745 
*END

*D_NET *80 0.145292
*CONN
*P io_out[12] O
*I *419:io_out[12] O *D top_wrapper
*CAP
1 io_out[12] 0.00116991
2 *419:io_out[12] 0.00167068
3 *80:14 0.00285421
4 *80:13 0.00168429
5 *80:11 0.0350315
6 *80:9 0.0367022
7 *3:10 *80:14 0.000653315
8 *4:8 *80:14 0.0301746
9 *5:8 *80:14 0.0353513
*RES
1 *419:io_out[12] *80:9 10.755 
2 *80:9 *80:11 274.86 
3 *80:11 *80:13 4.5 
4 *80:13 *80:14 98.01 
5 *80:14 io_out[12] 12.105 
*END

*D_NET *81 0.183397
*CONN
*P io_out[13] O
*I *419:io_out[13] O *D top_wrapper
*CAP
1 io_out[13] 0.000966792
2 *419:io_out[13] 0.000156293
3 *81:10 0.00291956
4 *81:9 0.00195277
5 *81:7 0.0360523
6 *81:5 0.0362086
7 *3:10 *81:7 5.06472e-05
8 *5:8 *81:10 0.0499694